LAMMPS (29 Oct 2020)
# Ar in metal units

# simulation params in reduced units
# settable from command line
# epsilon, sigma, mass set below

variable	x index 10
variable	y index 10
variable	z index 10
variable        rhostar index 0.8842
variable        dt index 0.005
variable        cutoff index 5.0
variable        skin index 0.3
variable        tinitial index 1.0
variable        nthermo index 10
variable        nsteps index 1000

# physical constants from update.cpp

variable        kb index 8.617343e-5          # kB in eV/K
variable        avogadro index 6.02214129e23  # Avogadro's number

# Ar properties in metal units

variable        epskb index 117.7             # LJ epsilon/kB in degrees K
variable        sigma index 3.504             # LJ sigma in Angstroms
variable        epsilon equal 117.7*8.617343e-5
variable        mass index 39.95              # mass in g/mole

# scale factors

# sigma = scale factor on distance, converts reduced distance to Angs
# epsilon = scale factor on energy, converts reduced energy to eV
# tmpscale = scale factor on temperature, converts reduced temp to degrees K
# tscale = scale factor on time, converts reduced time to ps
#   formula is t = t* / sqrt(epsilon/mass/sigma^2), but need t in fs
#   use epsilon (Joule), mass (kg/atom), sigma (meter) to get t in seconds
# pscale = scale factor on pressure, converts reduced pressure to bars
#   formula is P = P* / (sigma^3/epsilon), but need P in atmospheres
#   use sigma (meter), epsilon (Joule) to get P in nt/meter^2, convert to bars

variable        eVtoJoule index 1.602e-19     # convert eV to Joules
variable        NtMtoAtm equal 1.0e-5         # convert Nt/meter^2 to bars

variable        tmpscale equal 117.7
variable        epsilonJ equal 0.010142612711*1.602e-19
variable        massKgAtom equal 39.95/1000.0/6.02214129e23
variable        sigmaM equal 3.504/1.0e10
variable        sigmaMsq equal 3.504e-10*3.504e-10
variable        tscale equal 1.0e12/sqrt(1.6248465563022e-21/6.6338529895236e-26/1.2278016e-19)
variable        sigmaM3 equal 3.504e-10*3.504e-10*3.504e-10
variable        pscale equal 1e-05/(4.3022168064e-29/(1.6248465563022e-21))

# variables
# alat = lattice constant in Angs (at reduced density rhostar)
# temp = reduced temperature for output
# epair,emol,etotal = reduced epair,emol,etotal energies for output
# press = reduced pressure for output

variable        alat equal (4.0*3.504*3.504*3.504/0.8842)^(1.0/3.0)
variable        temp equal temp/117.7
variable        epair equal epair/0.010142612711
variable        emol equal emol/0.010142612711
variable        etotal equal etotal/0.010142612711
variable        press equal press/377.676586146256

# same script as in.ar.lj

units		metal
atom_style	atomic

lattice		fcc 5.79518437579763
Lattice spacing in x,y,z = 5.7951844 5.7951844 5.7951844
region		box block 0 $x 0 $y 0 $z
region		box block 0 10 0 $y 0 $z
region		box block 0 10 0 10 0 $z
region		box block 0 10 0 10 0 10
create_box	1 box
Created orthogonal box = (0.0000000 0.0000000 0.0000000) to (57.951844 57.951844 57.951844)
create_atoms	1 box
Created 4000 atoms
mass		1 39.95

velocity	all create $(v_tinitial*v_epskb) 12345
velocity	all create 117.70000000000000284 12345

pair_style	deepmd ../shallow_metal.pb
pair_coeff

neighbor	$(v_skin*v_sigma) bin
neighbor	1.0511999999999999122 bin
neigh_modify	delay 0 every 20 check no

fix		1 all nve

timestep	$(v_dt*v_tscale)
timestep	0.011194658410003900315

# columns 2,3,4 = temp,pe,press in metal units
# columns 5-9 = temp,energy.press in reduced units, compare to in.ar.lj
# need to include metal unit output to enable use of reduced variables

thermo_style    custom step temp pe press v_temp v_epair v_emol v_etotal v_press
thermo_modify	norm yes
thermo		10

run		1000
  update every 20 steps, delay 0 steps, check no
Step Temp PotEng Press v_temp v_epair v_emol v_etotal v_press
0        117.7  0.043538879    20606.034            1     4.292669            0     5.792294    54.559999
Averages over the last 51 of 101 rows, steps 500 to 1000:
Temp PotEng Press v_temp v_epair v_emol v_etotal v_press
62.8918 0.0514684 21118.6 0.53434 5.07447 0 5.87578 55.9172
Loop time of 255.047 on 4 procs for 1000 steps with 4000 atoms

Please see the log.cite file for references relevant to this simulation
